Using: /usr/bin/time -p /applications/synopsys/2010.03/hspice/hspice/linux/hspice lab1.lis
 ****** HSPICE -- D-2010.03 32-BIT (Feb 23 2010) linux ******                   
  Copyright (C) 2010 Synopsys, Inc. All Rights Reserved.                        
  Unpublished-rights reserved under US copyright laws.
  This program is protected by law and is subject to the 
  terms and conditions of the license agreement from Synopsys.
  Use of this program is your acceptance to be bound by the 
  license agreement. HSPICE is the trademark of Synopsys, Inc.
  Input File: lab1.lis                                                          
 lic:  
 lic: FLEXlm: v8.5b 
 lic: USER:   ppaulson             HOSTNAME: linux60809 
 lic: HOSTID: 3417ebc6e322         PID:      17870 
 lic: Using FLEXlm license file: 
 lic: 27000@hoth 
 lic: Checkout 1 hspice 
 lic: License/Maintenance for hspice will expire on 13-oct-2017/2016.06 
 lic: FLOATING license(s) on SERVER hoth 
 lic:   
 Init: read install configuration file: /applications/synopsys/2010.03/hspice/hspice/meta.cfg
1****** HSPICE -- D-2010.03 32-BIT (Feb 23 2010) linux ******                   
 ******  
 lab1

  ******  mos   model parameters tnom=  25.000 temp=  25.000 *****
 ***************************************************************************
 *** common model parameters  model name:   0:nch      model type:pmos   ***
 ***************************************************************************
     names  values   units     names  values   units     names  values   units
     -----  ------   -----     -----  ------   -----     -----  ------   -----

   1*** geometry parameters ***
       ld=   0.    meters      lmlt=   1.00                wd=   0.    meters 
     wmlt=   1.00                xl=   0.    meters        xw=   0.    meters 
     lref=   0.    meters      wref=   0.    meters      lref=   0.    meters 
     wref=   0.    meters     xlref=   0.    meters     xwref=   0.    meters 
     lmin=   0.    meters      wmin=   0.    meters      lmax=   0.    meters 
     wmax=   0.    meters 

   2*** threshold voltage parameters ***
      vto=-133.88m volts        nss=   0.    1/cm**2      tpg=   1.00         
      phi= 579.84m volts      gamma= 527.63m v**0.5      bulk=  gnd           
    ngate=   0.    cm**3       nsub= 1.0e+15 1/cm**3   delvto=   0.    volts  

   3*** gate overlap capacitance parameters ***
     cgbo=   0.    f/meter     cgdo=   0.    f/meter     cgso=   0.    f/meter
     meto=   0.    meters 

   4*** gate capacitance parameters ***
    capop=   2.00               cf1=   0.    volts        cf2= 100.00m volts  
      cf3=   1.00  volts        cf4=  50.00               cf5= 666.67m        
      cf6= 500.00               xqc= 500.00m              tox= 100.00n meters 
      cox= 345.31u f/m**2 

   5*** diffusion parasitic parameters ***
      acm=   0.                  is=  10.00f amps          js=   0.    a/m**2 
      jsw=   0.    amp/m        nds=   1.00               cbd=   0.    farad  
      cbs=   0.    farad         cj= 101.85u f/m**2      cjsw=   0.    f/m    
   cjgate=   0.    f/m           mj= 500.00m             mjsw= 330.00m        
       pb= 800.00m volts        php= 800.00m volts         tt=   0.    secs   
     hdif=   0.    meters      ldif=   0.    meters        rd=   0.    ohms   
       rs=   0.    ohms         rsh=   0.    ohms/sq       fc=   0.           
    alpha=   0.                 vcr=   0.    volts      iirat=   0.           
      rdc=   0.    ohms         rsc=   0.    ohms           n=   1.00         
     vnds=  -1.00  volts  

   6*** temperature effect parameters ***
     tlev=   0.               tlevc=   0.                  eg=   1.11  ev     
     gap1= 702.00u ev/deg      gap2=   1.11k deg          xti=   0.           
      bex=  -1.50               tcv=   0.    v/deg k      trd=   0.    /deg   
      trs=   0.    /deg         cta=   0.    /deg         ctp=   0.    /deg   

   7*** noise parameters ***
       kf=   0.                  af=   1.00              nlev=   2.00         
   gdsnoi=   1.00         

   ***  level  1  model parameters  ***

   lambda=   0.    /v            kp=   8.63u a/v**2 
 
      
 *****************************************************************
 ******  option summary
 ******
 runlvl  = 3         bypass  = 2         
 ******  
 lab1

  ******  dc transfer curves tnom=  25.000 temp=  25.000 *****

   *** source        0:vgs              =    0.            ***


a


 legend:

  a: v(1,2)
  b: i(m1)

      volt       v(1,2)
 (a       )       0.            2.0000        4.0000        6.0000       8.0000 
 (b       )     -15.0000p     -10.0000p      -5.0000p       0.           5.0000p
                      +             +             +             +             + 
    0.         0.    -a------+------+------+------+------+------b------+------+-
 -500.0000m  500.000m +   a  +      +      +      +      +   b  +      +      + 
   -1.0000     1.000  +      a      +      +      +      +b     +      +      + 
   -1.5000     1.500  +      +   a  +      +      +     b+      +      +      + 
   -2.0000     2.000  +      +      a      +      +  b   +      +      +      + 
   -2.5000     2.500  +      +      +   a  +      b      +      +      +      + 
   -3.0000     3.000  +      +      +      a   b  +      +      +      +      + 
   -3.5000     3.500  +      +      +      +b  a  +      +      +      +      + 
   -4.0000     4.000  +      +      +    b +      a      +      +      +      + 
   -4.5000     4.500  +      +      +  b   +      +   a  +      +      +      + 
   -5.0000     5.000 -+------+------b------+------+------a------+------+------+-
                      +             +             +             +             + 

b

 ******  
 lab1

  ******  dc transfer curves tnom=  25.000 temp=  25.000 *****

   *** source        0:vgs              =   -1.0000        ***


a


 legend:

  a: v(1,2)
  b: i(m1)

      volt       v(1,2)
 (a       )      -2.0000        0.            2.0000        4.0000       6.0000 
 (b       )     -15.0000u     -10.0000u      -5.0000u       0.           5.0000u
                      +             +             +             +             + 
    0.        -1.000 -+------a------+------+------+------+------b------+------+-
 -500.0000m -500.000m +      +b  a  +      +      +      +      +      +      + 
   -1.0000     0.     +b     +      a      +      +      +      +      +      + 
   -1.5000   500.000m +b     +      +   a  +      +      +      +      +      + 
   -2.0000     1.000  +b     +      +      a      +      +      +      +      + 
   -2.5000     1.500  +b     +      +      +   a  +      +      +      +      + 
   -3.0000     2.000  +b     +      +      +      a      +      +      +      + 
   -3.5000     2.500  +b     +      +      +      +   a  +      +      +      + 
   -4.0000     3.000  +b     +      +      +      +      a      +      +      + 
   -4.5000     3.500  +b     +      +      +      +      +   a  +      +      + 
   -5.0000     4.000 -+b-----+------+------+------+------+------a------+------+-
                      +             +             +             +             + 

b

 ******  
 lab1

  ******  dc transfer curves tnom=  25.000 temp=  25.000 *****

   *** source        0:vgs              =   -2.0000        ***


a


 legend:

  a: v(1,2)
  b: i(m1)

      volt       v(1,2)
 (a       )      -2.0000        0.            2.0000        4.0000       6.0000 
 (b       )     -80.0000u     -60.0000u     -40.0000u     -20.0000u      0.     
                      +             +             +             +             + 
    0.        -2.000 -a------+------+------+------+------+------+------+------b-
 -500.0000m   -1.500  +   a  +      +      +      +     b+      +      +      + 
   -1.0000    -1.000  +      a      +    b +      +      +      +      +      + 
   -1.5000  -500.000m +      +  ba  +      +      +      +      +      +      + 
   -2.0000     0.     +      + b    a      +      +      +      +      +      + 
   -2.5000   500.000m +      + b    +   a  +      +      +      +      +      + 
   -3.0000     1.000  +      + b    +      a      +      +      +      +      + 
   -3.5000     1.500  +      + b    +      +   a  +      +      +      +      + 
   -4.0000     2.000  +      + b    +      +      a      +      +      +      + 
   -4.5000     2.500  +      + b    +      +      +   a  +      +      +      + 
   -5.0000     3.000 -+------+-b----+------+------+------a------+------+------+-
                      +             +             +             +             + 

b

 ******  
 lab1

  ******  dc transfer curves tnom=  25.000 temp=  25.000 *****

   *** source        0:vgs              =   -3.0000        ***


a


 legend:

  a: v(1,2)
  b: i(m1)

      volt       v(1,2)
 (a       )      -4.0000       -2.0000        0.            2.0000       4.0000 
 (b       )    -200.0000u    -150.0000u    -100.0000u     -50.0000u      0.     
                      +             +             +             +             + 
    0.        -3.000 -+------a------+------+------+------+------+------+------b-
 -500.0000m   -2.500  +      +   a  +      +      +      +      b      +      + 
   -1.0000    -2.000  +      +      a      +      + b    +      +      +      + 
   -1.5000    -1.500  +      +      +   a  b      +      +      +      +      + 
   -2.0000    -1.000  +      +      +b     a      +      +      +      +      + 
   -2.5000  -500.000m +      +    b +      +   a  +      +      +      +      + 
   -3.0000     0.     +      +   b  +      +      a      +      +      +      + 
   -3.5000   500.000m +      +   b  +      +      +   a  +      +      +      + 
   -4.0000     1.000  +      +   b  +      +      +      a      +      +      + 
   -4.5000     1.500  +      +   b  +      +      +      +   a  +      +      + 
   -5.0000     2.000 -+------+---b--+------+------+------+------a------+------+-
                      +             +             +             +             + 

b

 ******  
 lab1

  ******  dc transfer curves tnom=  25.000 temp=  25.000 *****

   *** source        0:vgs              =   -4.0000        ***


a


 legend:

  a: v(1,2)
  b: i(m1)

      volt       v(1,2)
 (a       )      -4.0000       -2.0000        0.            2.0000       4.0000 
 (b       )    -300.0000u    -200.0000u    -100.0000u       0.         100.0000u
                      +             +             +             +             + 
    0.        -4.000 -a------+------+------+------+------+------b------+------+-
 -500.0000m   -3.500  +   a  +      +      +      +   b  +      +      +      + 
   -1.0000    -3.000  +      a      +      +  b   +      +      +      +      + 
   -1.5000    -2.500  +      +   a  +  b   +      +      +      +      +      + 
   -2.0000    -2.000  +      +   b  a      +      +      +      +      +      + 
   -2.5000    -1.500  +     b+      +   a  +      +      +      +      +      + 
   -3.0000    -1.000  +  b   +      +      a      +      +      +      +      + 
   -3.5000  -500.000m + b    +      +      +   a  +      +      +      +      + 
   -4.0000     0.     +b     +      +      +      a      +      +      +      + 
   -4.5000   500.000m +b     +      +      +      +   a  +      +      +      + 
   -5.0000     1.000 -+b-----+------+------+------+------a------+------+------+-
                      +             +             +             +             + 

b

 ******  
 lab1

  ******  dc transfer curves tnom=  25.000 temp=  25.000 *****

   *** source        0:vgs              =   -5.0000        ***


a


 legend:

  a: v(1,2)
  b: i(m1)

      volt       v(1,2)
 (a       )      -6.0000       -4.0000       -2.0000        0.           2.0000 
 (b       )    -600.0000u    -400.0000u    -200.0000u       0.         200.0000u
                      +             +             +             +             + 
    0.        -5.000 -+------a------+------+------+------+------b------+------+-
 -500.0000m   -4.500  +      +   a  +      +      +      +b     +      +      + 
   -1.0000    -4.000  +      +      a      +      + b    +      +      +      + 
   -1.5000    -3.500  +      +      +   a  +   b  +      +      +      +      + 
   -2.0000    -3.000  +      +      +      2      +      +      +      +      + 
   -2.5000    -2.500  +      +      +  b   +   a  +      +      +      +      + 
   -3.0000    -2.000  +      +      +b     +      a      +      +      +      + 
   -3.5000    -1.500  +      +    b +      +      +   a  +      +      +      + 
   -4.0000    -1.000  +      +   b  +      +      +      a      +      +      + 
   -4.5000  -500.000m +      +  b   +      +      +      +   a  +      +      + 
   -5.0000     0.    -+------+--b---+------+------+------+------a------+------+-
                      +             +             +             +             + 

b

 

          ***** job concluded
1****** HSPICE -- D-2010.03 32-BIT (Feb 23 2010) linux ******                   
 ******  
 lab1

  ******  job statistics summary tnom=  25.000 temp=  25.000 *****
 
 
 ******  Machine Information  ******
 CPU:
 model name	: Intel(R) Xeon(R) CPU E5-1620 v2 @ 3.70GHz
 cpu MHz	: 1200.000
 
 OS:
 Linux version 2.6.32-696.el6.x86_64 (mockbuild@c1bm.rdu2.centos.org) (gcc versi
 on 4.4.7 20120313 (Red Hat 4.4.7-18) (GCC) ) #1 SMP Tue Mar 21 19:29:05 UTC 201
 7


  ******  HSPICE Threads Information  ******

  Command Line Threads Count                  :     1
  Available CPU Count                         :     8
  Actual Model Evaluation(Load) Threads Count :     1
  Actual Solver Threads Count                 :     1


  ******  Circuit Statistics  ******
  # nodes       =       3 # elements   =       3
  # resistors   =       0 # capacitors =       0 # inductors   =       0
  # mutual_inds =       0 # vccs       =       0 # vcvs        =       0
  # cccs        =       0 # ccvs       =       0 # volt_srcs   =       2
  # curr_srcs   =       0 # diodes     =       0 # bjts        =       0
  # jfets       =       0 # mosfets    =       1 # U elements  =       0
  # T elements  =       0 # W elements =       0 # B elements  =       0
  # S elements  =       0 # P elements =       0 # va device   =       0


  ******  Runtime Statistics (seconds)  ******

  analysis           time    # points   tot. iter  conv.iter
  op point           0.00           1           0
  dc sweep           0.01          66         141
  readin             0.00
  errchk             0.00
  setup              0.00
  output             0.00


           total memory used          159  kbytes
           total cpu time            0.01 seconds
           total elapsed time        0.10 seconds
           job started at     15:26:09 04/11/2017
           job ended   at     15:26:09 04/11/2017


 lic: Release hspice token(s) 
